   ---   19   cards of disk file read into card cache cells  1   onward.
 Comment card is ignored.      |C   LBUS  LBRNCH   LDATA   LEXCT   LYMAT  LSWTCH
 1st card (Lists  1-10).       |    6000   10000  192000     900  420000    120
 Limit CIDEAL cards =   200    |CARDS        200 { Limit of CIDEAL will be 2 mor
 Comment card is ignored.      |C LSMOUT  LSIZ12  LSIZ13  LBSTAC  LCTACS  LIMASS
 2nd card (Lists 11-20).       |     720    2000   72800     510   90000     80
 Comment card is ignored.      |C    LFD   LHIST  LSIZ23   NCOMP  LSPCUM  LSIZ26
 3rd card (Lists 21-30).       |    3000   15000  192000     120   60000  16000
 4th card (Lists 31-32).       |     400     100     { Optional card for Lists
 Comment card is ignored.      |C  LWORK  LMARTI
 Supplemental offsets.         |  340000     742
Alternative Transients Program (ATP),  GNU Linux or DOS.  All rights reserved by Can/Am user group of Portland, Oregon, USA.
 Date (dd-mth-yy) and time of day (hh.mm.ss) = 03-Dec-23  19:14:38   Name of disk plot file is  CC\simulacao-atp\circuito-duplo.pl4
Consult the 860-page ATP Rule Book of the Can/Am EMTP User Group in Portland,  Oregon, USA.  Source code date is 16 September 2005.
Total size of LABCOM tables = 10223690 INTEGER words.  31 VARDIM  List Sizes follow:  6002  10K  192K  900  420K  1200  15K
  120K  10K  20K  720  2K  72800  510  90K  800  90  254  120K  100K  3K  15K  192K  120  60K  160K  600  210K  300  60  400
--------------------------------------------------+--------------------------------------------------------------------------------
Descriptive interpretation of input data cards.   |  Input data card images are shown below, all 80 columns, character by character
                                                  0         1         2         3         4         5         6         7         8
                                                  012345678901234567890123456789012345678901234567890123456789012345678901234567890
--------------------------------------------------+--------------------------------------------------------------------------------
Comment card.   NUMDCD = 1.                       |C data:C:\USERS\ANAPA\ONEDRIVE\TCC\SIMULACAO-ATP\CIRCUITO-DUPLO.DAT
Marker card preceding new EMTP data case.         |BEGIN NEW DATA CASE
Compute overhead line constants.  Limit = 120     |LINE CONSTANTS
Erase all of  0   cards in the punch buffer.      |$ERASE
Pairs of 6-character bus names for each phase.    |BRANCH  IN_001OUT001IN_002OUT002IN_003OUT003IN_004OUT004IN_005OUT005IN_006OUT006
Request for metric (not English) units.           |METRIC
Line conductor card.  5.000E-01  5.970E-02     4  |  1   .5   .0597 4           2.959    -7.8    55.4    23.2
Line conductor card.  5.000E-01  5.970E-02     4  |  2   .5   .0597 4           2.959    -7.8    45.4    23.2
Line conductor card.  5.000E-01  5.970E-02     4  |  3   .5   .0597 4           2.959    -7.8    35.4    23.2
Line conductor card.  5.000E-01  5.970E-02     4  |  4   .5   .0597 4           2.959     7.8    35.4    23.2
Line conductor card.  5.000E-01  5.970E-02     4  |  5   .5   .0597 4           2.959     7.8    45.4    23.2
Line conductor card.  5.000E-01  5.970E-02     4  |  6   .5   .0597 4           2.959     7.8    55.4    23.2
Line conductor card.  5.000E-01  5.970E-02     4  |  0   .5   .0597 4           2.959    -8.3    64.9    18.8
Line conductor card.  5.000E-01  5.970E-02     4  |  0   .5   .0597 4           2.959     8.3    64.9    18.9
Blank card terminating conductor cards.           |BLANK CARD ENDING CONDUCTOR CARDS
Frequency card.  1.000E+03  1.000E+03  1.000E+00  |    1.E3      1.E3           000101 101000 0      1.     1        44

Line conductor table after sorting and initial processing.
 Table   Phase   Skin effect    Resistance   Reactance data specification     Diameter   Horizontal   Avg height
   Row  Number        R-type    R (ohm/km)   X-type      X(ohm/km) or GMR     (  cm  )     X (mtrs)     Y (mtrs)        Name
     1       1        .50000        .05970        4               .000000      2.95900       -7.800       33.933
     2       2        .50000        .05970        4               .000000      2.95900       -7.800       30.600
     3       3        .50000        .05970        4               .000000      2.95900       -7.800       27.267
     4       4        .50000        .05970        4               .000000      2.95900        7.800       27.267
     5       5        .50000        .05970        4               .000000      2.95900        7.800       30.600
     6       6        .50000        .05970        4               .000000      2.95900        7.800       33.933
     7       0        .50000        .05970        4               .000000      2.95900       -8.300       34.167
     8       0        .50000        .05970        4               .000000      2.95900        8.300       34.233

Matrices are for earth resistivity = 1.00000000E+03  ohm-meters  and frequency 1.00000000E+03  Hz.   Correction factor =
1.00000000E-06
                            ++++++++++++   Earth wires will be segmented   ++++++++++

Susceptance matrix,  in units of  [mhos/kmeter ]  for the system of physical conductors.
Rows and columns proceed in the same order as the sorted input.

   1  6.527867E-05

   2 -9.458315E-06  5.392054E-05

   3 -4.841491E-06 -1.270710E-05  5.084961E-05

   4 -1.692148E-06 -2.231326E-06 -2.784273E-06  5.084973E-05

   5 -1.747678E-06 -2.033818E-06 -2.231967E-06 -1.271137E-05  5.390419E-05

   6 -1.727588E-06 -1.753086E-06 -1.699031E-06 -4.883722E-06 -9.568690E-06  6.467776E-05

   7 -3.163338E-05 -8.515439E-06 -4.686451E-06 -1.555834E-06 -1.612551E-06 -1.624516E-06  6.466470E-05

   8 -1.645276E-06 -1.632230E-06 -1.571207E-06 -4.669853E-06 -8.412742E-06 -3.084460E-05 -1.566172E-06  6.394951E-05

Susceptance matrix,  in units of  [mhos/kmeter ]  for symmetrical components of the equivalent phase conductor
Rows proceed in the sequence  (0, 1, 2),  (0, 1, 2),  etc.;  columns proceed in the sequence  (0, 2, 1),  (0, 2, 1),  etc.

   0  3.867834E-05
      0.000000E+00

   1  6.150265E-06  5.930683E-07
     -4.462594E-07 -3.552027E-06

   2  6.150265E-06  6.568524E-05  5.930683E-07
      4.462594E-07  1.581364E-22  3.552027E-06

   0 -5.966972E-06  3.997788E-07  3.997788E-07  3.836804E-05
      0.000000E+00  2.012183E-07 -2.012183E-07  0.000000E+00

   1 -3.703874E-07  1.448850E-07  2.709874E-07 -2.556700E-06 -3.327844E-06
     -2.406854E-07  2.504673E-07 -2.718044E-08 -5.369711E-06 -1.409231E-06

   2 -3.703874E-07  2.709874E-07  1.448850E-07 -2.556700E-06  6.553182E-05 -3.327844E-06
      2.406854E-07  2.718044E-08 -2.504673E-07  5.369711E-06  8.931367E-22  1.409231E-06

Impedance matrix,  in units of  [ohms/kmeter ]  for the system of physical conductors.
Rows and columns proceed in the same order as the sorted input.

   1  1.044600E+00
      1.369523E+01

   2  8.956471E-01  1.052880E+00
      6.746869E+00  1.368491E+01

   3  8.998108E-01  9.040228E-01  1.061354E+00
      5.870662E+00  6.736509E+00  1.367452E+01

   4  8.992840E-01  9.034813E-01  9.077272E-01  1.061354E+00
      4.697139E+00  4.769294E+00  4.792139E+00  1.367452E+01

   5  8.951342E-01  8.992840E-01  9.034813E-01  9.040228E-01  1.052880E+00
      4.779651E+00  4.802533E+00  4.769294E+00  6.736509E+00  1.368491E+01

   6  8.910306E-01  8.951342E-01  8.992840E-01  8.998108E-01  8.956471E-01  1.044600E+00
      4.812853E+00  4.779651E+00  4.697139E+00  5.870662E+00  6.746869E+00  1.369523E+01

   7  0.000000E+00  0.000000E+00  0.000000E+00  0.000000E+00  0.000000E+00  0.000000E+00  1.044027E+00
      0.000000E+00  0.000000E+00  0.000000E+00  0.000000E+00  0.000000E+00  0.000000E+00  1.369595E+01

   8  0.000000E+00  0.000000E+00  0.000000E+00  0.000000E+00  0.000000E+00  0.000000E+00  0.000000E+00  1.043864E+00
      0.000000E+00  0.000000E+00  0.000000E+00  0.000000E+00  0.000000E+00  0.000000E+00  0.000000E+00  1.369616E+01
        Both  "R"  and  "X"  are in  [ohms];   "C"  are in  [microMhos].

Impedance matrix,  in units of  [ohms/kmeter ]  for symmetrical components of the equivalent phase conductor
Rows proceed in the sequence  (0, 1, 2),  (0, 1, 2),  etc.;  columns proceed in the sequence  (0, 2, 1),  (0, 2, 1),  etc.

   0  2.852598E+00
      2.658758E+01

   1 -2.622108E-01 -5.028533E-01
     -1.410557E-01  2.903783E-01

   2  2.496701E-01  1.531176E-01  5.029002E-01
     -1.337595E-01  7.233540E+00  2.902939E-01

   0  2.697947E+00 -3.306852E-02  2.057038E-02  2.852598E+00
      1.429990E+01 -8.762854E-03 -1.492298E-03  2.658758E+01

   1 -1.157756E-02  4.658038E-02 -4.732713E-05 -2.406742E-01 -5.028520E-01
     -1.706832E-02 -2.694795E-02 -5.154219E-02 -1.493409E-01  2.903774E-01

   2  2.412311E-02 -4.748638E-05 -4.662779E-02  2.532632E-01  1.531176E-01  5.029016E-01
     -2.425675E-02 -5.154361E-02 -2.686582E-02 -1.565534E-01  7.233540E+00  2.902946E-01

Sequence       Surge impedance       Attenuation   velocity    Wavelength   Resistance    Reactance   Susceptance
         magnitude(ohm) angle(degr.)    db/km        km/sec        km          ohm/km        ohm/km      mho/km
   Zero :  8.31473E+02 -3.06194E+00  1.49210E-02  1.95652E+05  1.95652E+02  2.85260E+00  2.65876E+01  3.86783E-05
Positive:  3.31887E+02 -6.06320E-01  2.00375E-03  2.88235E+05  2.88235E+02  1.53118E-01  7.23354E+00  6.56852E-05
Request for flushing of punch buffer.             |$PUNCH

A listing of 80-column card images now being flushed from punch buffer follows.
===============================================================================
1234567890123456789012345678901234567890123456789012345678901234567890123456789
===============================================================================
C  <++++++>  Cards punched by support routine on  03-Dec-23  19:14:38  <++++++>
C LINE CONSTANTS
C $ERASE
C BRANCH  IN_001OUT001IN_002OUT002IN_003OUT003IN_004OUT004IN_005OUT005IN_006OUT0
C METRIC
C   1   .5   .0597 4           2.959    -7.8    55.4    23.2
C   2   .5   .0597 4           2.959    -7.8    45.4    23.2
C   3   .5   .0597 4           2.959    -7.8    35.4    23.2
C   4   .5   .0597 4           2.959     7.8    35.4    23.2
C   5   .5   .0597 4           2.959     7.8    45.4    23.2
C   6   .5   .0597 4           2.959     7.8    55.4    23.2
C   0   .5   .0597 4           2.959    -8.3    64.9    18.8
C   0   .5   .0597 4           2.959     8.3    64.9    18.9
C BLANK CARD ENDING CONDUCTOR CARDS
C     1.E3      1.E3           000101 101000 0      1.     1        44
$VINTAGE, 1
$UNITS,  1000.,  1000.
 1IN_001OUT001              1.04459963E+00  1.36952344E+01  6.52786716E+01
 2IN_002OUT002              8.95647090E-01  6.74686874E+00 -9.45831451E+00
                            1.05288013E+00  1.36849121E+01  5.39205405E+01
 3IN_003OUT003              8.99810825E-01  5.87066213E+00 -4.84149150E+00
                            9.04022814E-01  6.73650916E+00 -1.27070999E+01
                            1.06135373E+00  1.36745150E+01  5.08496056E+01
 4IN_004OUT004              8.99284040E-01  4.69713943E+00 -1.69214810E+00
                            9.03481275E-01  4.76929417E+00 -2.23132588E+00
                            9.07727172E-01  4.79213940E+00 -2.78427273E+00
                            1.06135373E+00  1.36745150E+01  5.08497311E+01
 5IN_005OUT005              8.95134200E-01  4.77965072E+00 -1.74767810E+00
                            8.99284040E-01  4.80253342E+00 -2.03381820E+00
                            9.03481275E-01  4.76929417E+00 -2.23196749E+00
                            9.04022814E-01  6.73650916E+00 -1.27113703E+01
                            1.05288013E+00  1.36849121E+01  5.39041861E+01
 6IN_006OUT006              8.91030557E-01  4.81285278E+00 -1.72758798E+00
                            8.95134200E-01  4.77965072E+00 -1.75308633E+00
                            8.99284040E-01  4.69713943E+00 -1.69903070E+00
                            8.99810825E-01  5.87066213E+00 -4.88372153E+00
                            8.95647090E-01  6.74686874E+00 -9.56868967E+00
                            1.04459963E+00  1.36952344E+01  6.46777630E+01
$VINTAGE, -1,
$UNITS, -1., -1., { Restore values that existed b4 preceding $UNITS
=========<  End of LUNIT7 punched cards as flushed by  $PUNCH  request  >=======

Blank card terminating frequency cards.           |BLANK CARD ENDING FREQUENCY CARDS
Blank card ending  "LINE CONSTANTS"  cases.       |BLANK CARD ENDING LINE CONSTANT
Timing figures characterizing central processor (CP) solution speed.  ----------------------------   CP sec  Wait sec  Real sec
                                                                                          Totals      0.031     0.000     0.031

